@<TRIPOS>MOLECULE
DPP
25 24 1 0 0
SMALL
NO_CHARGES


@<TRIPOS>ATOM
      1 CAY        -0.1020   -1.0690    0.0000 C.3       1 DPP    0.0000
      2 HY1        -0.8850   -1.1700   -0.7520 H         1 DPP    0.0000
      3 HY2         0.7130   -1.7550   -0.2310 H         1 DPP    0.0000
      4 HY3        -0.5090   -1.3070    0.9830 H         1 DPP    0.0000
      5 CY          0.4220    0.3620    0.0000 C.2       1 DPP    0.0000
      6 OY          1.3220    0.6310    0.8070 O.2       1 DPP    0.0000
      7 N          -0.0650    1.2810   -0.8290 N.am      1 DPP    0.0000
      8 HN         -0.7920    1.0390   -1.4710 H         1 DPP    0.0000
      9 CA          0.4570    2.6300   -0.8020 C.3       1 DPP    0.0000
     10 HA          1.1650    2.6090   -0.0960 H         1 DPP    0.0000
     11 CB          1.0440    3.0250   -2.1520 C.3       1 DPP    0.0000
     12 HB1         1.2810    3.9960   -2.1600 H         1 DPP    0.0000
     13 HB2         0.3920    2.8350   -2.8860 H         1 DPP    0.0000
     14 NG          2.2470    2.2580   -2.3980 N.4       1 DPP    0.0000
     15 HG1         2.6320    2.5170   -3.2840 H         1 DPP    0.0000
     16 HG2         2.9140    2.4440   -1.6770 H         1 DPP    0.0000
     17 HG3         2.0250    1.2830   -2.4030 H         1 DPP    0.0000
     18 C          -0.6560    3.6150   -0.4700 C.2       1 DPP    0.0000
     19 O          -0.4820    4.4870    0.3780 O.2       1 DPP    0.0000
     20 NT         -1.8000    3.4720   -1.1420 N.am      1 DPP    0.0000
     21 HNT        -1.8770    2.7340   -1.8270 H         1 DPP    0.0000
     22 CAT        -2.9330    4.3440   -0.9180 C.3       1 DPP    0.0000
     23 HT1        -3.7550    4.0480   -1.5700 H         1 DPP    0.0000
     24 HT2        -3.2500    4.2680    0.1220 H         1 DPP    0.0000
     25 HT3        -2.6490    5.3730   -1.1370 H         1 DPP    0.0000
@<TRIPOS>BOND
     1    1    5 1
     2    1    2 1
     3    1    3 1
     4    1    4 1
     5    5    6 2
     6    5    7 am
     7    7    8 1
     8    7    9 1
     9    9   10 1
    10    9   11 1
    11    9   18 1
    12   11   12 1
    13   11   13 1
    14   11   14 1
    15   14   15 1
    16   14   16 1
    17   14   17 1
    18   18   19 2
    19   18   20 am
    20   20   22 1
    21   20   21 1
    22   22   23 1
    23   22   24 1
    24   22   25 1
@<TRIPOS>SUBSTRUCTURE
     1 DPP     1 RESIDUE           4 A     DPP     0 ROOT
