@<TRIPOS>MOLECULE
DAB
28 27 1 0 0
SMALL
NO_CHARGES


@<TRIPOS>ATOM
      1 CAY        -0.1020   -1.0690    0.0000 C.3       1 DAB    0.0000
      2 HY1        -0.8850   -1.1700   -0.7520 H         1 DAB    0.0000
      3 HY2         0.7130   -1.7550   -0.2310 H         1 DAB    0.0000
      4 HY3        -0.5090   -1.3070    0.9830 H         1 DAB    0.0000
      5 CY          0.4220    0.3620    0.0000 C.2       1 DAB    0.0000
      6 OY          1.3220    0.6310    0.8070 O.2       1 DAB    0.0000
      7 N          -0.0650    1.2810   -0.8290 N.am      1 DAB    0.0000
      8 HN         -0.7990    1.0360   -1.4790 H         1 DAB    0.0000
      9 CA          0.4570    2.6300   -0.8020 C.3       1 DAB    0.0000
     10 HA          1.2340    2.6980   -0.0400 H         1 DAB    0.0000
     11 CB          1.0440    3.0250   -2.1520 C.3       1 DAB    0.0000
     12 HB1         0.3160    2.8210   -2.9370 H         1 DAB    0.0000
     13 HB2         1.2850    4.0880   -2.1460 H         1 DAB    0.0000
     14 CG          2.3110    2.2170   -2.4110 C.3       1 DAB    0.0000
     15 HG1         2.0690    1.1550   -2.4220 H         1 DAB    0.0000
     16 HG2         3.0370    2.4160   -1.6220 H         1 DAB    0.0000
     17 ND          2.8730    2.5980   -3.6900 N.4       1 DAB    0.0000
     18 HD1         3.7120    2.0630   -3.8620 H         1 DAB    0.0000
     19 HD2         2.2010    2.4140   -4.4210 H         1 DAB    0.0000
     20 HD3         3.0980    3.5820   -3.6790 H         1 DAB    0.0000
     21 C          -0.6560    3.6150   -0.4700 C.2       1 DAB    0.0000
     22 O          -0.4820    4.4870    0.3780 O.2       1 DAB    0.0000
     23 NT         -1.8000    3.4720   -1.1420 N.am      1 DAB    0.0000
     24 HNT        -1.8780    2.7330   -1.8270 H         1 DAB    0.0000
     25 CAT        -2.9330    4.3440   -0.9180 C.3       1 DAB    0.0000
     26 HT1        -3.7550    4.0480   -1.5700 H         1 DAB    0.0000
     27 HT2        -3.2500    4.2680    0.1220 H         1 DAB    0.0000
     28 HT3        -2.6490    5.3730   -1.1370 H         1 DAB    0.0000
@<TRIPOS>BOND
     1    1    5 1
     2    1    2 1
     3    1    3 1
     4    1    4 1
     5    5    6 2
     6    5    7 am
     7    7    9 1
     8    7    8 1
     9    9   21 1
    10    9   11 1
    11    9   10 1
    12   11   14 1
    13   11   12 1
    14   11   13 1
    15   14   16 1
    16   14   17 1
    17   14   15 1
    18   17   18 1
    19   17   19 1
    20   17   20 1
    21   21   22 2
    22   21   23 am
    23   23   25 1
    24   23   24 1
    25   25   26 1
    26   25   27 1
    27   25   28 1
@<TRIPOS>SUBSTRUCTURE
     1 DAB     1 RESIDUE           4 A     DAB     0 ROOT
