@<TRIPOS>MOLECULE
Myr.pdb
48 47 2 0 0
SMALL
NO_CHARGES


@<TRIPOS>ATOM
      1 C1          0.4220    0.3620    0.0000 C.2       1 MYR    0.6521
      2 O1          1.3150    0.6290    0.8010 O.2       1 MYR   -0.6051
      3 C2         -0.1020   -1.0690    0.0000 C.3       1 MYR   -0.1494
      4 H2A        -1.1670   -1.0660    0.2310 H         1 MYR    0.0602
      5 H2B         0.0560   -1.5140   -0.9830 H         1 MYR    0.0602
      6 C3          0.6440   -1.8840    1.0510 C.3       1 MYR   -0.0744
      7 H3A         1.7090   -1.8870    0.8200 H         1 MYR    0.0602
      8 H3B         0.4860   -1.4400    2.0340 H         1 MYR    0.0602
      9 C4          0.1200   -3.3160    1.0510 C.3       1 MYR   -0.0794
     10 H4A         0.2770   -3.7600    0.0680 H         1 MYR    0.0367
     11 H4B        -0.9450   -3.3120    1.2820 H         1 MYR    0.0367
     12 C5          0.8650   -4.1300    2.1020 C.3       1 MYR   -0.0784
     13 H5A         0.7080   -3.6860    3.0850 H         1 MYR    0.0437
     14 H5B         1.9310   -4.1330    1.8710 H         1 MYR    0.0437
     15 C6          0.3420   -5.5620    2.1020 C.3       1 MYR   -0.0784
     16 H6A        -0.7240   -5.5590    2.3330 H         1 MYR    0.0387
     17 H6B         0.4990   -6.0060    1.1190 H         1 MYR    0.0387
     18 C7          1.0870   -6.3760    3.1530 C.3       1 MYR   -0.0794
     19 H7A         2.1520   -6.3800    2.9220 H         1 MYR    0.0407
     20 H7B         0.9300   -5.9330    4.1360 H         1 MYR    0.0407
     21 C8          0.5620   -7.8080    3.1520 C.3       1 MYR   -0.0784
     22 H8A         0.7190   -8.2520    2.1690 H         1 MYR    0.0387
     23 H8B        -0.5030   -7.8040    3.3830 H         1 MYR    0.0387
     24 C9          1.3070   -8.6230    4.2030 C.3       1 MYR   -0.0794
     25 H9A         1.1500   -8.1790    5.1860 H         1 MYR    0.0397
     26 H9B         2.3720   -8.6270    3.9710 H         1 MYR    0.0397
     27 C10         0.7830  -10.0550    4.2020 C.3       1 MYR   -0.0784
     28 H10A        0.9400  -10.4990    3.2190 H         1 MYR    0.0397
     29 H10B       -0.2830  -10.0510    4.4330 H         1 MYR    0.0397
     30 C11         1.5270  -10.8700    5.2520 C.3       1 MYR   -0.0794
     31 H11A        1.3700  -10.4260    6.2350 H         1 MYR    0.0397
     32 H11B        2.5930  -10.8740    5.0210 H         1 MYR    0.0397
     33 C12         1.0030  -12.3020    5.2520 C.3       1 MYR   -0.0794
     34 H12A        1.1600  -12.7460    4.2690 H         1 MYR    0.0397
     35 H12B       -0.0620  -12.2980    5.4830 H         1 MYR    0.0397
     36 C13         1.7480  -13.1160    6.3020 C.3       1 MYR   -0.0804
     37 H13A        1.5920  -12.6720    7.2850 H         1 MYR    0.0387
     38 H13B        2.8130  -13.1210    6.0710 H         1 MYR    0.0387
     39 C14         1.2220  -14.5470    6.3020 C.3       1 MYR   -0.0921
     40 H14A        1.3790  -14.9920    5.3190 H         1 MYR    0.0327
     41 H14B        1.7560  -15.1300    7.0530 H         1 MYR    0.0327
     42 H14C        0.1570  -14.5430    6.5340 H         1 MYR    0.0327
     43 N          -0.1300    1.2080   -0.8680 N.am      2 NME   -0.5859
     44 HN         -0.8610    0.8900   -1.4870 H         2 NME    0.3075
     45 CH3         0.3180    2.5830   -0.9230 C.3       2 NME    0.0893
     46 HH31       -0.2450    3.1190   -1.6880 H         2 NME    0.0407
     47 HH32        1.3800    2.6100   -1.1690 H         2 NME    0.0407
     48 HH33        0.1580    3.0570    0.0450 H         2 NME    0.0407
@<TRIPOS>BOND
     1    1    2 2
     2    1    3 1
     3    1   43 am
     4   27   24 1
     5   27   29 1
     6   27   30 1
     7   27   28 1
     8   30   31 1
     9   30   32 1
    10   30   33 1
    11   33   34 1
    12   33   35 1
    13   33   36 1
    14   36   38 1
    15   36   39 1
    16   36   37 1
    17   39   40 1
    18   39   41 1
    19   39   42 1
    20    3    5 1
    21    3    6 1
    22    3    4 1
    23    6    7 1
    24    6    8 1
    25    6    9 1
    26    9   12 1
    27    9   10 1
    28    9   11 1
    29   12   14 1
    30   12   13 1
    31   12   15 1
    32   15   17 1
    33   15   18 1
    34   15   16 1
    35   18   19 1
    36   18   20 1
    37   18   21 1
    38   21   22 1
    39   21   23 1
    40   21   24 1
    41   24   26 1
    42   24   25 1
    43   44   43 1
    44   43   45 1
    45   45   47 1
    46   45   48 1
    47   45   46 1
@<TRIPOS>SUBSTRUCTURE
     1 MYR     1 RESIDUE           4 NA    MYR     1 ROOT
     2 NME    43 RESIDUE           4 A     NME     1 ROOT
