@<TRIPOS>MOLECULE
ORN
31 30 1 0 0
SMALL
NO_CHARGES


@<TRIPOS>ATOM
      1 CAY        -0.1020   -1.0690    0.0000 C.3       1 ORN    0.0000
      2 HY1        -0.8850   -1.1700   -0.7520 H         1 ORN    0.0000
      3 HY2         0.7130   -1.7550   -0.2310 H         1 ORN    0.0000
      4 HY3        -0.5090   -1.3070    0.9830 H         1 ORN    0.0000
      5 CY          0.4220    0.3620    0.0000 C.2       1 ORN    0.0000
      6 OY          1.3220    0.6310    0.8070 O.2       1 ORN    0.0000
      7 N          -0.0650    1.2810   -0.8290 N.am      1 ORN    0.0000
      8 HN         -0.7920    1.0390   -1.4710 H         1 ORN    0.0000
      9 CA          0.4570    2.6300   -0.8020 C.3       1 ORN    0.0000
     10 HA          1.1650    2.6090   -0.0960 H         1 ORN    0.0000
     11 CB          1.0440    3.0250   -2.1520 C.3       1 ORN    0.0000
     12 HB1         1.2660    4.0000   -2.1470 H         1 ORN    0.0000
     13 HB2         0.3760    2.8390   -2.8730 H         1 ORN    0.0000
     14 CG          2.3110    2.2170   -2.4110 C.3       1 ORN    0.0000
     15 HG1         2.0880    1.2420   -2.4220 H         1 ORN    0.0000
     16 HG2         2.9760    2.3990   -1.6870 H         1 ORN    0.0000
     17 CD          2.9030    2.6180   -3.7580 C.3       1 ORN    0.0000
     18 HD1         3.1420    3.5890   -3.7610 H         1 ORN    0.0000
     19 HD2         2.2540    2.4320   -4.4950 H         1 ORN    0.0000
     20 NE          4.1060    1.8510   -4.0040 N.4       1 ORN    0.0000
     21 HE1         4.4940    2.1140   -4.8870 H         1 ORN    0.0000
     22 HE2         4.7710    2.0330   -3.2800 H         1 ORN    0.0000
     23 HE3         3.8830    0.8760   -4.0150 H         1 ORN    0.0000
     24 C          -0.6560    3.6150   -0.4700 C.2       1 ORN    0.0000
     25 O          -0.4820    4.4870    0.3780 O.2       1 ORN    0.0000
     26 NT         -1.8000    3.4720   -1.1420 N.am      1 ORN    0.0000
     27 HNT        -1.8770    2.7340   -1.8270 H         1 ORN    0.0000
     28 CAT        -2.9330    4.3440   -0.9180 C.3       1 ORN    0.0000
     29 HT1        -3.7550    4.0480   -1.5700 H         1 ORN    0.0000
     30 HT2        -3.2500    4.2690    0.1220 H         1 ORN    0.0000
     31 HT3        -2.6480    5.3740   -1.1370 H         1 ORN    0.0000
@<TRIPOS>BOND
     1    1    2 1
     2    1    3 1
     3    1    4 1
     4    1    5 1
     5    5    6 2
     6    5    7 am
     7    7    8 1
     8    7    9 1
     9    9   10 1
    10    9   11 1
    11    9   24 1
    12   11   12 1
    13   11   13 1
    14   11   14 1
    15   14   15 1
    16   14   16 1
    17   14   17 1
    18   17   18 1
    19   17   19 1
    20   17   20 1
    21   20   21 1
    22   20   22 1
    23   20   23 1
    24   24   25 2
    25   24   26 am
    26   26   27 1
    27   26   28 1
    28   28   29 1
    29   28   30 1
    30   28   31 1
@<TRIPOS>SUBSTRUCTURE
     1 ORN     1 RESIDUE           4 A     ORN     0 ROOT
